<?xml version="1.0" encoding="UTF-8"?>

<!-- generated on 2022-01-26 19:07:08 by Eclipse SUMO netedit Version 1.10.0
<configuration xmlns:xsi="http://www.w3.org/2001/XMLSchema-instance" xsi:noNamespaceSchemaLocation="http://sumo.dlr.de/xsd/netconvertConfiguration.xsd">

    <input>
        <sumo-net-file value="/Users/pgmac/Documents/GitHub_Repositories/SMARTS/baselines/marl_benchmark/scenarios/intersections/4lane_onesv/map.net.xml"/>
    </input>

    <output>
        <output-file value="/Users/pgmac/Documents/GitHub_Repositories/SMARTS/baselines/marl_benchmark/scenarios/intersections/4lane_onesv/map.net.xml"/>
    </output>

    <processing>
        <geometry.min-radius.fix.railways value="false"/>
        <geometry.max-grade.fix value="false"/>
        <offset.disable-normalization value="true"/>
        <lefthand value="false"/>
    </processing>

    <junctions>
        <no-turnarounds value="true"/>
        <junctions.corner-detail value="5"/>
        <junctions.limit-turn-speed value="5.5"/>
        <rectangular-lane-cut value="false"/>
    </junctions>

    <pedestrian>
        <walkingareas value="false"/>
    </pedestrian>

    <report>
        <aggregate-warnings value="5"/>
    </report>

</configuration>
-->

<net version="1.9" junctionCornerDetail="5" limitTurnSpeed="5.50" xmlns:xsi="http://www.w3.org/2001/XMLSchema-instance" xsi:noNamespaceSchemaLocation="http://sumo.dlr.de/xsd/net_file.xsd">

    <location netOffset="0.00,0.00" convBoundary="-35.98,-14.34,111.65,107.71" origBoundary="-10000000000.00,-10000000000.00,10000000000.00,10000000000.00" projParameter="!"/>

    <edge id=":gneJ2_0" function="internal">
        <lane id=":gneJ2_0_0" index="0" speed="13.89" length="14.41" shape="33.06,54.29 33.06,39.88"/>
        <lane id=":gneJ2_0_1" index="1" speed="13.89" length="14.41" shape="36.26,54.29 36.26,39.88"/>
    </edge>
    <edge id=":gneJ2_2" function="internal">
        <lane id=":gneJ2_2_0" index="0" speed="6.50" length="9.03" shape="27.46,45.48 29.91,45.13 31.66,44.08 32.71,42.33 33.06,39.88"/>
    </edge>
    <edge id=":gneJ2_3" function="internal">
        <lane id=":gneJ2_3_0" index="0" speed="13.89" length="14.40" shape="27.46,45.48 41.86,45.49"/>
    </edge>
    <edge id=":gneJ2_4" function="internal">
        <lane id=":gneJ2_4_0" index="0" speed="8.00" length="14.20" shape="27.45,48.68 31.31,48.13 34.06,46.48 35.71,43.73 36.26,39.88"/>
    </edge>
    <edge id=":gneJ2_5" function="internal">
        <lane id=":gneJ2_5_0" index="0" speed="13.89" length="14.41" shape="27.45,48.68 41.86,48.69"/>
    </edge>

    <edge id="edge-east-WE" from="gneJ2" to="gneJ4" priority="-1">
        <lane id="edge-east-WE_0" index="0" speed="13.89" length="69.79" shape="41.86,45.49 111.65,45.49"/>
        <lane id="edge-east-WE_1" index="1" speed="13.89" length="69.79" shape="41.86,48.69 111.65,48.69"/>
    </edge>
    <edge id="edge-north-NS" from="gneJ3" to="gneJ2" priority="-1">
        <lane id="edge-north-NS_0" index="0" speed="13.89" length="53.42" shape="33.10,107.71 33.06,54.29"/>
        <lane id="edge-north-NS_1" index="1" speed="13.89" length="53.42" shape="36.30,107.71 36.26,54.29"/>
    </edge>
    <edge id="edge-south-NS" from="gneJ2" to="gneJ5" priority="-1">
        <lane id="edge-south-NS_0" index="0" speed="13.89" length="54.22" shape="33.06,39.88 33.05,-14.34"/>
        <lane id="edge-south-NS_1" index="1" speed="13.89" length="54.22" shape="36.26,39.88 36.25,-14.34"/>
    </edge>
    <edge id="edge-west-WE" from="gneJ1" to="gneJ2" priority="-1">
        <lane id="edge-west-WE_0" index="0" speed="13.89" length="63.43" shape="-35.97,45.41 27.46,45.48"/>
        <lane id="edge-west-WE_1" index="1" speed="13.89" length="63.43" shape="-35.98,48.61 27.45,48.68"/>
    </edge>

    <junction id="gneJ1" type="dead_end" x="-35.98" y="50.21" incLanes="" intLanes="" shape="-35.98,50.21 -35.97,43.81"/>
    <junction id="gneJ2" type="unregulated" x="37.86" y="50.29" incLanes="edge-north-NS_0 edge-north-NS_1 edge-west-WE_0 edge-west-WE_1" intLanes=":gneJ2_0_0 :gneJ2_0_1 :gneJ2_2_0 :gneJ2_3_0 :gneJ2_4_0 :gneJ2_5_0" shape="31.46,54.29 37.86,54.29 38.31,52.07 38.86,51.29 39.64,50.73 40.64,50.40 41.86,50.29 41.86,43.89 39.64,43.44 38.86,42.89 38.30,42.11 37.97,41.11 37.86,39.88 31.46,39.88 31.01,42.10 30.46,42.88 29.68,43.44 28.68,43.77 27.46,43.88 27.45,50.28 29.68,50.73 30.46,51.28 31.02,52.07 31.35,53.07"/>
    <junction id="gneJ3" type="dead_end" x="37.90" y="107.71" incLanes="" intLanes="" shape="37.90,107.71 31.50,107.71"/>
    <junction id="gneJ4" type="dead_end" x="111.65" y="50.29" incLanes="edge-east-WE_0 edge-east-WE_1" intLanes="" shape="111.65,43.89 111.65,50.29"/>
    <junction id="gneJ5" type="dead_end" x="37.85" y="-14.34" incLanes="edge-south-NS_0 edge-south-NS_1" intLanes="" shape="31.45,-14.34 37.85,-14.34"/>

    <connection from="edge-north-NS" to="edge-south-NS" fromLane="0" toLane="0" via=":gneJ2_0_0" dir="s" state="M"/>
    <connection from="edge-north-NS" to="edge-south-NS" fromLane="1" toLane="1" via=":gneJ2_0_1" dir="s" state="M"/>
    <connection from="edge-west-WE" to="edge-south-NS" fromLane="0" toLane="0" via=":gneJ2_2_0" dir="r" state="M"/>
    <connection from="edge-west-WE" to="edge-east-WE" fromLane="0" toLane="0" via=":gneJ2_3_0" dir="s" state="M"/>
    <connection from="edge-west-WE" to="edge-south-NS" fromLane="1" toLane="1" via=":gneJ2_4_0" dir="r" state="M"/>
    <connection from="edge-west-WE" to="edge-east-WE" fromLane="1" toLane="1" via=":gneJ2_5_0" dir="s" state="M"/>

    <connection from=":gneJ2_0" to="edge-south-NS" fromLane="0" toLane="0" dir="s" state="M"/>
    <connection from=":gneJ2_0" to="edge-south-NS" fromLane="1" toLane="1" dir="s" state="M"/>
    <connection from=":gneJ2_2" to="edge-south-NS" fromLane="0" toLane="0" dir="r" state="M"/>
    <connection from=":gneJ2_3" to="edge-east-WE" fromLane="0" toLane="0" dir="s" state="M"/>
    <connection from=":gneJ2_4" to="edge-south-NS" fromLane="0" toLane="1" dir="r" state="M"/>
    <connection from=":gneJ2_5" to="edge-east-WE" fromLane="0" toLane="1" dir="s" state="M"/>

</net>
